27
beta-methyl glucoside in its stable form
C      0.97151571      -0.84962744      -0.59288526
C      1.48086846       0.47630377      -0.01057570
C      0.43621592       1.57452851      -0.18903062
C     -0.90797964       1.13622662       0.37504409
C     -1.31301239      -0.18877975      -0.26932234
C     -3.12768926      -1.70796791      -0.31902421
C      1.87489182      -2.03215077      -0.25178588
O     -0.31273131      -1.17262868      -0.03433233
O     -2.50571475      -0.59498490       0.31945497
O     -1.84474128       2.16703703       0.09657110
O      0.93154391       2.74133727       0.45405128
O      2.68209067       0.80954746      -0.68883995
O      1.92297897      -2.26878539       1.14441242
H      1.66167360       0.33042212       1.06423045
H      0.89780252      -0.74800707      -1.68789079
H      0.31133063       1.76030709      -1.26917631
H     -0.81318890       0.96353155       1.45749963
H     -1.44222649      -0.05675797      -1.36115999
H     -4.06722092      -1.88569066       0.20690035
H     -3.33958135      -1.48902091      -1.37497638
H     -2.49869099      -2.60146067      -0.25756533
H     -2.69854312       1.86632941       0.43813074
H      0.23661268       3.41143201       0.38668801
H      2.93109169       1.69100128      -0.37600396
H      1.51599939      -2.91801642      -0.79837355
H      2.89278391      -1.80934999      -0.58076908
H      1.00088151      -2.32996157       1.43363264
