27
Transition state
C      0.97358100      -1.25392100      -0.80364800        6 
C      1.81701400      -0.56108000       0.26315700        6 
C      1.00071700       0.38582300       1.18094800        6 
C      0.16681300       1.32100800       0.27362500        6 
C     -0.35476200       0.69388500      -0.99622200        6 
C     -3.53207000       0.69784000       0.35570200        6 
C     -0.15404300      -2.19258800      -0.27249700        6 
O      0.25270600      -0.25653300      -1.60642800        8 
O     -2.75623800       0.15770400      -0.69922700        8 
O      0.95438200       2.38405000      -0.28442100        8 
O      0.25763700      -0.27529000       2.15157300        8 
O      2.81388400       0.20380100      -0.45546100        8 
O     -1.10492700      -1.47825300       0.39150000        8 
H      2.28896900      -1.33957900       0.87577300        1 
H      1.62256200      -1.74628800      -1.53043200        1 
H      1.71664500       1.03720700       1.70121800        1 
H     -0.64782300       1.77030800       0.84189900        1 
H     -0.98955300       1.28469400      -1.64323500        1 
H     -2.94792900       0.83729000       1.27827900        1 
H     -3.91902500       1.67142700       0.03577400        1 
H     -4.39000300       0.05171800       0.59526400        1 
H      1.77715500       1.95457300      -0.59772500        1 
H     -0.41083600      -0.83727200       1.63043000        1 
H      3.50561000       0.45048700       0.17968500        1 
H     -0.54658200      -2.73446800      -1.15293400        1 
H      0.36005900      -2.94524300       0.35974000        1 
H     -2.26564100      -0.64301600      -0.33562600        1 
